
**** 11/27/19 23:06:17 ***** PSpice 16.6.0 (October 2012) ***** ID# 0 ********

 ** Profile: "SCHEMATIC1-1"  [ C:\Users\art_home\projects\keyboard\simulation\battary_contoller-pspicefiles\schematic1\1.sim ] 


 ****     CIRCUIT DESCRIPTION


******************************************************************************




** Creating circuit file "1.cir" 
** WARNING: THIS AUTOMATICALLY GENERATED FILE MAY BE OVERWRITTEN BY SUBSEQUENT SIMULATIONS

*Libraries: 
* Profile Libraries :
* Local Libraries :
* From [PSPICE NETLIST] section of C:\Users\art_home\AppData\Roaming\SPB_Data\cdssetup\OrCAD_PSpice/16.6.0/PSpice.ini file:
.lib "nom.lib" 

*Analysis directives: 
.DC LIN V_V3 1 6 0.1 
.OPTIONS ADVCONV
.PROBE64 V(alias(*)) I(alias(*)) W(alias(*)) D(alias(*)) NOISE(alias(*)) 
.INC "..\SCHEMATIC1.net" 



**** INCLUDING SCHEMATIC1.net ****
* source BATTARY_CONTOLLER
X_U1A         N00172 N00607 N00098 0 N00658 LM358
V_V1         N00098 0 vdc
----------------------$
ERROR -- Expecting keyword STIMULUS, saw vdc.

R_R1         0 N00172  3meg TC=0,0 
R_R2         N00172 N00098  2meg TC=0,0 
V_V2         N00607 0 4vdc
R_R3         0 N00689  5 TC=0,0 
X_M2         N00689 N00658 N00515 IRF7410
X_M3         N00515 N02009 N00098 IRF7410
X_U1B         N01479 N02561 N00098 0 N02009 LM358
R_R4         0 N01479  100meg TC=0,0 
R_R5         0 N02561  5meg TC=0,0 
R_R6         N02561 N00098  50k TC=0,0 
V_V3         N01479 0 0Vdc
X_D1         N01479 N00515 BAT60A/INF

**** RESUMING 1.cir ****
.END
