
**** 11/28/19 01:30:14 ***** PSpice 16.6.0 (October 2012) ***** ID# 0 ********

 ** Profile: "SCHEMATIC1-1"  [ C:\Users\art_home\projects\keyboard\simulation\battary_contoller-pspicefiles\schematic1\1.sim ] 


 ****     CIRCUIT DESCRIPTION


******************************************************************************




** Creating circuit file "1.cir" 
** WARNING: THIS AUTOMATICALLY GENERATED FILE MAY BE OVERWRITTEN BY SUBSEQUENT SIMULATIONS

*Libraries: 
* Profile Libraries :
* Local Libraries :
* From [PSPICE NETLIST] section of C:\Users\art_home\AppData\Roaming\SPB_Data\cdssetup\OrCAD_PSpice/16.6.0/PSpice.ini file:
.lib "nom.lib" 

*Analysis directives: 
.DC LIN V_V3 1 6 0.1 
.OPTIONS ADVCONV
.PROBE64 V(alias(*)) I(alias(*)) W(alias(*)) D(alias(*)) NOISE(alias(*)) 
.INC "..\SCHEMATIC1.net" 



**** INCLUDING SCHEMATIC1.net ****
* source BATTARY_CONTOLLER
X_U1A         N00172 N00607 N00098 0 N01035 LM358
V_V1         N00098 0 5vdc
R_R1         0 N00172  3meg TC=0,0 
R_R2         N00172 N00098  2meg TC=0,0 
V_V2         N00607 0 4vdc
R_R3         0 N04715  22 TC=0,0 
X_M2         N06033 N01035 N01031 IRF7410
X_M3         N01031 N02009 N00098 IRF7410
X_U1B         N02037 N02561 N00098 0 N02009 LM358
R_R5         0 N02561  5meg TC=0,0 
R_R6         N02561 N00098  50k TC=0,0 
V_V3         N02037 0 5vdc
X_M4         N06037 N03676 N02037 IRF7410
X_M5         N03676 N02009 N00098 IRF7410
R_R10         0 N03676  1k TC=0,0 
X_D1         N06037 N04715 BAT60A/INF
X_D2         N06033 N04715 BAT60A/INF

**** RESUMING 1.cir ****
.END

**** 11/28/19 01:30:14 ***** PSpice 16.6.0 (October 2012) ***** ID# 0 ********

 ** Profile: "SCHEMATIC1-1"  [ C:\Users\art_home\projects\keyboard\simulation\battary_contoller-pspicefiles\schematic1\1.sim ] 


 ****     Diode MODEL PARAMETERS


******************************************************************************




               X_M2.MD         X_M2.MD1        X_M2.MD2        X_M2.MD3        
          IS  857.202000E-09    0             100.000000E-12  100.000000E-12 
           N    1.5            50                                            
          BV   12                                                            
         IBV  250.000000E-06                                                 
          RS    3.066580E-03                    2.937690E-06                 
         CJO    2.817710E-09    2.270960E-09                                 
          VJ    2.83395        20.7117                                       
           M     .9              .9                                          
          FC     .1             9.999970E-09                                 
          EG    1                                                            
         XTI    1                                                            


               X_M3.MD         X_M3.MD1        X_M3.MD2        X_M3.MD3        
          IS  857.202000E-09    0             100.000000E-12  100.000000E-12 
           N    1.5            50                                            
          BV   12                                                            
         IBV  250.000000E-06                                                 
          RS    3.066580E-03                    2.937690E-06                 
         CJO    2.817710E-09    2.270960E-09                                 
          VJ    2.83395        20.7117                                       
           M     .9              .9                                          
          FC     .1             9.999970E-09                                 
          EG    1                                                            
         XTI    1                                                            


               X_M4.MD         X_M4.MD1        X_M4.MD2        X_M4.MD3        
          IS  857.202000E-09    0             100.000000E-12  100.000000E-12 
           N    1.5            50                                            
          BV   12                                                            
         IBV  250.000000E-06                                                 
          RS    3.066580E-03                    2.937690E-06                 
         CJO    2.817710E-09    2.270960E-09                                 
          VJ    2.83395        20.7117                                       
           M     .9              .9                                          
          FC     .1             9.999970E-09                                 
          EG    1                                                            
         XTI    1                                                            


               X_M5.MD         X_M5.MD1        X_M5.MD2        X_M5.MD3        
          IS  857.202000E-09    0             100.000000E-12  100.000000E-12 
           N    1.5            50                                            
          BV   12                                                            
         IBV  250.000000E-06                                                 
          RS    3.066580E-03                    2.937690E-06                 
         CJO    2.817710E-09    2.270960E-09                                 
          VJ    2.83395        20.7117                                       
           M     .9              .9                                          
          FC     .1             9.999970E-09                                 
          EG    1                                                            
         XTI    1                                                            


               X_D1.D1         X_D2.D1         
          IS  109.371000E-06  109.371000E-06 
           N    1.0853          1.0853       
          BV   13              13            
         IBV    1.000000E-03    1.000000E-03 
          RS     .03764          .03764      
          TT   10.000000E-12   10.000000E-12 
         CJO   52.100000E-12   52.100000E-12 
          VJ     .224            .224        
           M     .241            .241        
          EG     .54             .54         
         XTI    1.5             1.5          


               X_U1A.x_lm358.dx 
          IS  800.000000E-18 
          RS    1            


               X_U1A.x_lm358.dy 
          IS  800.000000E-18 
          RS    1.000000E-03 
         CJO   10.000000E-12 


               X_U1B.x_lm358.dx 
          IS  800.000000E-18 
          RS    1            


               X_U1B.x_lm358.dy 
          IS  800.000000E-18 
          RS    1.000000E-03 
         CJO   10.000000E-12 


**** 11/28/19 01:30:14 ***** PSpice 16.6.0 (October 2012) ***** ID# 0 ********

 ** Profile: "SCHEMATIC1-1"  [ C:\Users\art_home\projects\keyboard\simulation\battary_contoller-pspicefiles\schematic1\1.sim ] 


 ****     BJT MODEL PARAMETERS


******************************************************************************




               X_U1A.x_lm358.qx 
               PNP             
       LEVEL    1            
          IS  800.000000E-18 
          BF  166.7          
          NF    1            
          BR    1            
          NR    1            
         ISS    0            
          RE    0            
          RC    0            
         CJE    0            
         VJE     .75         
         CJC    0            
         VJC     .75         
         MJC     .33         
        XCJC    1            
         CJS    0            
         VJS     .75         
          KF    0            
          AF    1            
          CN    2.2          
           D     .52         


               X_U1B.x_lm358.qx 
               PNP             
       LEVEL    1            
          IS  800.000000E-18 
          BF  166.7          
          NF    1            
          BR    1            
          NR    1            
         ISS    0            
          RE    0            
          RC    0            
         CJE    0            
         VJE     .75         
         CJC    0            
         VJC     .75         
         MJC     .33         
        XCJC    1            
         CJS    0            
         VJS     .75         
          KF    0            
          AF    1            
          CN    2.2          
           D     .52         


**** 11/28/19 01:30:14 ***** PSpice 16.6.0 (October 2012) ***** ID# 0 ********

 ** Profile: "SCHEMATIC1-1"  [ C:\Users\art_home\projects\keyboard\simulation\battary_contoller-pspicefiles\schematic1\1.sim ] 


 ****     MOSFET MODEL PARAMETERS


******************************************************************************




               X_M2.MM         X_M3.MM         X_M4.MM         X_M5.MM         
               PMOS            PMOS            PMOS            PMOS            
       LEVEL    1               1               1               1            
           L  100.000000E-06  100.000000E-06  100.000000E-06  100.000000E-06 
           W  100.000000E-06  100.000000E-06  100.000000E-06  100.000000E-06 
         VTO   -1.01518        -1.01518        -1.01518        -1.01518      
          KP  292.265         292.265         292.265         292.265        
       GAMMA    0               0               0               0            
         PHI     .6              .6              .6              .6          
      LAMBDA     .090028         .090028         .090028         .090028     
          IS    0               0               0               0            
          JS    0               0               0               0            
          PB     .8              .8              .8              .8          
        PBSW     .8              .8              .8              .8          
          CJ    0               0               0               0            
        CJSW    0               0               0               0            
        CGSO   75.096100E-06   75.096100E-06   75.096100E-06   75.096100E-06 
        CGDO   10.000000E-12   10.000000E-12   10.000000E-12   10.000000E-12 
        CGBO    0               0               0               0            
         TOX    0               0               0               0            
          XJ    0               0               0               0            
       UCRIT   10.000000E+03   10.000000E+03   10.000000E+03   10.000000E+03 
      DIOMOD    1               1               1               1            
         VFB    0               0               0               0            
        LETA    0               0               0               0            
        WETA    0               0               0               0            
          U0    0               0               0               0            
        TEMP    0               0               0               0            
         VDD    5               5               5               5            
       XPART    0               0               0               0            


**** 11/28/19 01:30:14 ***** PSpice 16.6.0 (October 2012) ***** ID# 0 ********

 ** Profile: "SCHEMATIC1-1"  [ C:\Users\art_home\projects\keyboard\simulation\battary_contoller-pspicefiles\schematic1\1.sim ] 


 ****     Current Controlled Switch MODEL PARAMETERS


******************************************************************************




               X_U1A.x_lm358.sw2 
         RON    1            
        ROFF   10.000000E+06 
         ION    0            
        IOFF   -1.000000E-06 


               X_U1A.x_lm358.sw1 
         RON    1            
        ROFF   10.000000E+06 
         ION   -1.000000E-06 
        IOFF    0            


               X_U1A.x_lm358.sw3 
         RON    1            
        ROFF   10.000000E+06 
         ION   -1.000000E-06 
        IOFF    0            


               X_U1A.x_lm358.sw4 
         RON    1            
        ROFF   10.000000E+06 
         ION    0            
        IOFF   -1.000000E-06 


               X_U1B.x_lm358.sw2 
         RON    1            
        ROFF   10.000000E+06 
         ION    0            
        IOFF   -1.000000E-06 


               X_U1B.x_lm358.sw1 
         RON    1            
        ROFF   10.000000E+06 
         ION   -1.000000E-06 
        IOFF    0            


               X_U1B.x_lm358.sw3 
         RON    1            
        ROFF   10.000000E+06 
         ION   -1.000000E-06 
        IOFF    0            


               X_U1B.x_lm358.sw4 
         RON    1            
        ROFF   10.000000E+06 
         ION    0            
        IOFF   -1.000000E-06 



          JOB CONCLUDED

**** 11/28/19 01:30:14 ***** PSpice 16.6.0 (October 2012) ***** ID# 0 ********

 ** Profile: "SCHEMATIC1-1"  [ C:\Users\art_home\projects\keyboard\simulation\battary_contoller-pspicefiles\schematic1\1.sim ] 


 ****     JOB STATISTICS SUMMARY


******************************************************************************



  Total job time (using Solver 1)   =         .08
